<?xml version="1.0" encoding="UTF-8"?>
<edges>
   <edge id="lane_i" from="1" to="2" priority="50" numLanes="3" speed="17" width="3" />
   <edge id="lane_o" from="2" to="3" priority="50" numLanes="3" speed="17" width="3" />
</edges>
