<?xml version="1.0" encoding="UTF-8"?>
<nodes>
   <node id="1" x="-2000" y="0.0" type="priority"/>
   <node id="2" x="+2000" y="0.0" type="priority"/>
   <node id="3" x="+2010" y="0.0" type="priority"/>
</nodes>
