<?xml version="1.0" encoding="UTF-8"?>

<!-- generated on Tue Dec 17 18:52:51 2019 by Eclipse SUMO netconvert Version 1.3.1
<configuration xmlns:xsi="http://www.w3.org/2001/XMLSchema-instance" xsi:noNamespaceSchemaLocation="http://sumo.dlr.de/xsd/netconvertConfiguration.xsd">

    <input>
        <node-files value="cross.nod.xml"/>
        <edge-files value="cross.edg.xml"/>
        <connection-files value="cross.con.xml"/>
    </input>

    <output>
        <output-file value="cross_update.net.xml"/>
    </output>

    <report>
        <verbose value="true"/>
    </report>

</configuration>
-->

<net version="1.3" junctionCornerDetail="5" limitTurnSpeed="5.50" xmlns:xsi="http://www.w3.org/2001/XMLSchema-instance" xsi:noNamespaceSchemaLocation="http://sumo.dlr.de/xsd/net_file.xsd">

    <location netOffset="2000.00,0.00" convBoundary="0.00,0.00,4010.00,0.00" origBoundary="-2000.00,0.00,2010.00,0.00" projParameter="!"/>

    <edge id=":2_0" function="internal">
        <lane id=":2_0_0" index="0" speed="17.00" length="0.10" width="3.00" shape="4000.00,-7.50 4000.00,-7.50"/>
        <lane id=":2_0_1" index="1" speed="17.00" length="0.10" width="3.00" shape="4000.00,-4.50 4000.00,-4.50"/>
        <lane id=":2_0_2" index="2" speed="17.00" length="0.10" width="3.00" shape="4000.00,-1.50 4000.00,-1.50"/>
    </edge>

    <edge id="lane_i" from="1" to="2" priority="50">
        <lane id="lane_i_0" index="0" speed="17.00" length="4000.00" width="3.00" shape="0.00,-7.50 4000.00,-7.50"/>
        <lane id="lane_i_1" index="1" speed="17.00" length="4000.00" width="3.00" shape="0.00,-4.50 4000.00,-4.50"/>
        <lane id="lane_i_2" index="2" speed="17.00" length="4000.00" width="3.00" shape="0.00,-1.50 4000.00,-1.50"/>
    </edge>
    <edge id="lane_o" from="2" to="3" priority="50">
        <lane id="lane_o_0" index="0" speed="17.00" length="10.00" width="3.00" shape="4000.00,-7.50 4010.00,-7.50"/>
        <lane id="lane_o_1" index="1" speed="17.00" length="10.00" width="3.00" shape="4000.00,-4.50 4010.00,-4.50"/>
        <lane id="lane_o_2" index="2" speed="17.00" length="10.00" width="3.00" shape="4000.00,-1.50 4010.00,-1.50"/>
    </edge>

    <junction id="1" type="dead_end" x="0.00" y="0.00" incLanes="" intLanes="" shape="0.00,0.00 0.00,-9.00"/>
    <junction id="2" type="priority" x="4000.00" y="0.00" incLanes="lane_i_0 lane_i_1 lane_i_2" intLanes=":2_0_0 :2_0_1 :2_0_2" shape="4000.00,0.00 4000.00,-9.00 4000.00,0.00">
        <request index="0" response="000" foes="000" cont="0"/>
        <request index="1" response="000" foes="000" cont="0"/>
        <request index="2" response="000" foes="000" cont="0"/>
    </junction>
    <junction id="3" type="dead_end" x="4010.00" y="0.00" incLanes="lane_o_0 lane_o_1 lane_o_2" intLanes="" shape="4010.00,-9.00 4010.00,0.00"/>

    <connection from="lane_i" to="lane_o" fromLane="0" toLane="0" via=":2_0_0" dir="s" state="M"/>
    <connection from="lane_i" to="lane_o" fromLane="1" toLane="1" via=":2_0_1" dir="s" state="M"/>
    <connection from="lane_i" to="lane_o" fromLane="2" toLane="2" via=":2_0_2" dir="s" state="M"/>

    <connection from=":2_0" to="lane_o" fromLane="0" toLane="0" dir="s" state="M"/>
    <connection from=":2_0" to="lane_o" fromLane="1" toLane="1" dir="s" state="M"/>
    <connection from=":2_0" to="lane_o" fromLane="2" toLane="2" dir="s" state="M"/>

</net>
