
			<routes>
				<vType id="type_1" accel="1000" decel="1000" sigma="0.0" length="3" width = "1.5" minGap="0.0" minGapLat = "0.0" maxSpeed="1000" guiShape="passenger"/>
				
				<route id="route_1" edges="lane_i lane_o" />
			
 <vehicle id="V1" type="type_1" route="route_1" depart="0.152988" departSpeed="5.000000" departLane= "1" color="1,0,0"/>" 
 <vehicle id="V0" type="type_1" route="route_1" depart="0.352072" departSpeed="5.000000" departLane= "0" color="0,0,1"/>" 
 <vehicle id="V2" type="type_1" route="route_1" depart="0.651852" departSpeed="5.000000" departLane= "2" color="0,0,1"/>" 
 <vehicle id="V4" type="type_1" route="route_1" depart="2.031164" departSpeed="5.000000" departLane= "1" color="0,0,1"/>" 
 <vehicle id="V5" type="type_1" route="route_1" depart="2.261734" departSpeed="5.000000" departLane= "2" color="0,1,0"/>" 
 <vehicle id="V3" type="type_1" route="route_1" depart="2.273083" departSpeed="5.000000" departLane= "0" color="1,0,0"/>" 
 <vehicle id="V7" type="type_1" route="route_1" depart="4.164069" departSpeed="5.000000" departLane= "1" color="0,1,0"/>" 
 <vehicle id="V8" type="type_1" route="route_1" depart="4.367022" departSpeed="5.000000" departLane= "2" color="1,0,0"/>" 
 <vehicle id="V6" type="type_1" route="route_1" depart="4.485435" departSpeed="5.000000" departLane= "0" color="1,0,0"/>" 
 <vehicle id="V9" type="type_1" route="route_1" depart="6.003417" departSpeed="5.000000" departLane= "0" color="0,0,1"/>" 
 <vehicle id="V10" type="type_1" route="route_1" depart="6.262744" departSpeed="5.000000" departLane= "2" color="0,1,0"/>" 
 <vehicle id="V12" type="type_1" route="route_1" depart="8.327033" departSpeed="5.000000" departLane= "1" color="1,0,0"/>" 
 <vehicle id="V13" type="type_1" route="route_1" depart="8.419510" departSpeed="5.000000" departLane= "2" color="1,0,0"/>" 
 <vehicle id="V11" type="type_1" route="route_1" depart="8.618719" departSpeed="5.000000" departLane= "0" color="0,1,0"/>" 
 <vehicle id="V16" type="type_1" route="route_1" depart="10.086810" departSpeed="5.000000" departLane= "2" color="0,0,1"/>" 
 <vehicle id="V14" type="type_1" route="route_1" depart="10.376200" departSpeed="5.000000" departLane= "0" color="1,0,0"/>" 
 <vehicle id="V15" type="type_1" route="route_1" depart="10.754629" departSpeed="5.000000" departLane= "1" color="0,0,1"/>" 
 <vehicle id="V17" type="type_1" route="route_1" depart="12.026629" departSpeed="5.000000" departLane= "0" color="1,0,0"/>" 
 <vehicle id="V18" type="type_1" route="route_1" depart="12.955617" departSpeed="5.000000" departLane= "1" color="0,1,0"/>" 
 <vehicle id="V19" type="type_1" route="route_1" depart="12.960245" departSpeed="5.000000" departLane= "2" color="1,0,0"/>" 
 <vehicle id="V22" type="type_1" route="route_1" depart="14.482468" departSpeed="5.000000" departLane= "2" color="0,1,0"/>" 
 <vehicle id="V20" type="type_1" route="route_1" depart="14.497911" departSpeed="5.000000" departLane= "0" color="0,1,0"/>" 
 <vehicle id="V21" type="type_1" route="route_1" depart="14.514520" departSpeed="5.000000" departLane= "1" color="0,0,1"/>" 
 <vehicle id="V25" type="type_1" route="route_1" depart="16.247087" departSpeed="5.000000" departLane= "2" color="1,0,0"/>" 
 <vehicle id="V23" type="type_1" route="route_1" depart="16.529294" departSpeed="5.000000" departLane= "0" color="0,0,1"/>" 
 <vehicle id="V24" type="type_1" route="route_1" depart="16.801179" departSpeed="5.000000" departLane= "1" color="0,1,0"/>" 
 <vehicle id="V26" type="type_1" route="route_1" depart="18.519267" departSpeed="5.000000" departLane= "0" color="0,1,0"/>" 
 <vehicle id="V27" type="type_1" route="route_1" depart="18.917943" departSpeed="5.000000" departLane= "2" color="0,1,0"/>" 
 <vehicle id="V29" type="type_1" route="route_1" depart="20.850385" departSpeed="5.000000" departLane= "1" color="1,0,0"/>" 
 <vehicle id="V28" type="type_1" route="route_1" depart="20.867518" departSpeed="5.000000" departLane= "0" color="0,0,1"/>" 
 <vehicle id="V30" type="type_1" route="route_1" depart="22.031344" departSpeed="5.000000" departLane= "0" color="1,0,0"/>" 
 <vehicle id="V31" type="type_1" route="route_1" depart="22.240478" departSpeed="5.000000" departLane= "1" color="1,0,0"/>" 
 <vehicle id="V32" type="type_1" route="route_1" depart="22.281315" departSpeed="5.000000" departLane= "2" color="1,0,0"/>" 
 <vehicle id="V33" type="type_1" route="route_1" depart="24.178789" departSpeed="5.000000" departLane= "0" color="0,0,1"/>" 
 <vehicle id="V34" type="type_1" route="route_1" depart="24.272929" departSpeed="5.000000" departLane= "1" color="0,0,1"/>" 
 <vehicle id="V35" type="type_1" route="route_1" depart="24.749590" departSpeed="5.000000" departLane= "2" color="0,1,0"/>" 
 <vehicle id="V37" type="type_1" route="route_1" depart="26.025500" departSpeed="5.000000" departLane= "1" color="1,0,0"/>" 
 <vehicle id="V38" type="type_1" route="route_1" depart="26.532274" departSpeed="5.000000" departLane= "2" color="0,0,1"/>" 
 <vehicle id="V36" type="type_1" route="route_1" depart="26.861689" departSpeed="5.000000" departLane= "0" color="1,0,0"/>" 
 <vehicle id="V39" type="type_1" route="route_1" depart="28.114046" departSpeed="5.000000" departLane= "0" color="0,1,0"/>" 
 <vehicle id="V40" type="type_1" route="route_1" depart="28.554314" departSpeed="5.000000" departLane= "2" color="0,0,1"/>" 
 <vehicle id="V41" type="type_1" route="route_1" depart="30.362861" departSpeed="5.000000" departLane= "0" color="0,0,1"/>" 
 <vehicle id="V43" type="type_1" route="route_1" depart="30.582726" departSpeed="5.000000" departLane= "2" color="1,0,0"/>" 
 <vehicle id="V42" type="type_1" route="route_1" depart="30.948348" departSpeed="5.000000" departLane= "1" color="0,0,1"/>" 
 <vehicle id="V45" type="type_1" route="route_1" depart="32.863069" departSpeed="5.000000" departLane= "2" color="1,0,0"/>" 
 <vehicle id="V44" type="type_1" route="route_1" depart="32.883479" departSpeed="5.000000" departLane= "1" color="0,1,0"/>" 
 <vehicle id="V48" type="type_1" route="route_1" depart="34.393685" departSpeed="5.000000" departLane= "2" color="0,0,1"/>" 
 <vehicle id="V46" type="type_1" route="route_1" depart="34.453511" departSpeed="5.000000" departLane= "0" color="0,0,1"/>" 
 <vehicle id="V47" type="type_1" route="route_1" depart="34.616994" departSpeed="5.000000" departLane= "1" color="1,0,0"/>" 
 <vehicle id="V49" type="type_1" route="route_1" depart="36.609358" departSpeed="5.000000" departLane= "0" color="1,0,0"/>" 
</routes>
